Circuit: * D:\IIITD\CTD_Labs\LAB_3_Filters\LC_filter.asc


Date: Thu Oct 14 22:35:22 2021
Total elapsed time: 0.030 seconds.

tnom = 27
temp = 27
method = trap
totiter = 0
traniter = 0
tranpoints = 0
accept = 0
rejected = 0
matrix size = 4
fillins = 1
solver = Normal

