Circuit: * D:\IIITD\CTD_Labs\LAB_3_Filters\LI_filter.asc


Date: Thu Oct 14 23:01:42 2021
Total elapsed time: 0.026 seconds.

tnom = 27
temp = 27
method = trap
totiter = 0
traniter = 0
tranpoints = 0
accept = 0
rejected = 0
matrix size = 4
fillins = 1
solver = Normal

