Circuit: * D:\IIITD\CTD_Labs\LAB_3_Filters\PI_filter2withRectifier.asc

WARNING: Less than two connections to node NC_01.  This node is used by D3.
.OP point found by inspection.

Date: Thu Oct 14 23:14:04 2021
Total elapsed time: 0.060 seconds.

tnom = 27
temp = 27
method = modified trap
totiter = 2058
traniter = 2058
tranpoints = 699
accept = 512
rejected = 187
matrix size = 13
fillins = 2
solver = Normal
Matrix Compiler1: 630 bytes object code size  0.2/0.1/[0.1]
Matrix Compiler2: 939 bytes object code size  0.1/0.2/[0.1]

