Circuit: * D:\IIITD\CTD_Labs\LAB_3_Filters\Series INductor_2With rectifier.asc

.OP point found by inspection.

Date: Thu Oct 14 21:58:39 2021
Total elapsed time: 0.044 seconds.

tnom = 27
temp = 27
method = modified trap
totiter = 3659
traniter = 3659
tranpoints = 1551
accept = 1078
rejected = 473
matrix size = 13
fillins = 6
solver = Normal
Matrix Compiler1: 870 bytes object code size  0.2/0.1/[0.1]
Matrix Compiler2: off  [0.1]/0.2/0.1

