Circuit: * D:\IIITD\CTD_Labs\LAB_3_Filters\Series_Inductor_filter.asc


Date: Thu Oct 14 21:03:58 2021
Total elapsed time: 0.029 seconds.

tnom = 27
temp = 27
method = trap
totiter = 0
traniter = 0
tranpoints = 0
accept = 0
rejected = 0
matrix size = 4
fillins = 0
solver = Normal

