Circuit: * D:\IIITD\CTD_Labs\LAB_1_Transfomer\Draft3.asc

Direct Newton iteration for .op point succeeded.

Date: Thu Sep 30 08:25:56 2021
Total elapsed time: 0.047 seconds.

tnom = 27
temp = 27
method = modified trap
totiter = 2085
traniter = 2082
tranpoints = 1042
accept = 1042
rejected = 0
matrix size = 3
fillins = 0
solver = Normal
Matrix Compiler1: 86 bytes object code size  0.1/0.1/[0.0]
Matrix Compiler2: off  [0.1]/0.1/0.1

