Circuit: * D:\IIITD\CTD_Labs\LAB_1_Transfomer\IdealTransformer.asc

.OP point found by inspection.

Date: Thu Sep 30 11:34:56 2021
Total elapsed time: 0.042 seconds.

tnom = 27
temp = 27
method = modified trap
totiter = 2082
traniter = 2082
tranpoints = 1042
accept = 1042
rejected = 0
matrix size = 5
fillins = 0
solver = Normal
Matrix Compiler1:       9 opcodes  0.1/[0.1]/0.1
Matrix Compiler2: 321 bytes object code size  0.1/0.1/[0.1]

