Circuit: * D:\IIITD\CTD_Labs\LAB_5_POWER_SUPPLY_SIMULATION\Load_regulation.asc

u1:dbl: Activation energy, Eg=0, too small, limited to 0.1
Direct Newton iteration failed to find .op point.  (Use ".option noopiter" to skip.)
Starting Gmin stepping
Gmin = 10
Gmin = 1.07374
Gmin = 0.115292
Gmin = 0.0123794
Gmin = 0.00132923
Gmin = 0.000142725
Gmin = 1.5325e-005
Gmin = 1.6455e-006
Gmin = 1.76685e-007
Gmin = 1.89714e-008
Gmin = 2.03704e-009
Gmin = 2.18725e-010
Gmin = 2.34854e-011
Gmin = 2.52173e-012
Gmin = 2.70769e-013
Gmin = 0
Gmin stepping succeeded in finding the operating point.


Date: Thu Oct 28 23:21:09 2021
Total elapsed time: 0.078 seconds.

tnom = 27
temp = 27
method = modified trap
totiter = 4852
traniter = 4431
tranpoints = 1748
accept = 1522
rejected = 226
matrix size = 36
fillins = 37
solver = Normal
Matrix Compiler1: 3.99 KB object code size  0.7/0.4/[0.3]
Matrix Compiler2: 3.31 KB object code size  0.3/0.6/[0.3]

