Circuit: * D:\IIITD\CTD_Labs\LAB_4_Voltage_Regulator\Voltage_Regulator_with_A_Shunt_capacitor.asc

.OP point found by inspection.
.step rl=100
.step rl=1100
.step rl=2100
.step rl=3100
.step rl=4100
.step rl=5000

Date: Thu Oct 21 23:18:25 2021
Total elapsed time: 0.275 seconds.

tnom = 27
temp = 27
method = modified trap
totiter = 3071
traniter = 3071
tranpoints = 1388
accept = 1276
rejected = 112
matrix size = 12
fillins = 6
solver = Normal
Matrix Compiler1: 820 bytes object code size  0.2/0.1/[0.1]
Matrix Compiler2: off  [0.1]/0.2/0.1

