Circuit: * D:\IIITD\CTD_Labs\LAB_4_Voltage_Regulator\Voltage _Regulator_with_IC7805.asc

u1:dbl: Activation energy, Eg=0, too small, limited to 0.1
Direct Newton iteration for .op point succeeded.

Date: Thu Oct 21 23:50:41 2021
Total elapsed time: 0.035 seconds.

tnom = 27
temp = 27
method = trap
totiter = 44
traniter = 0
tranpoints = 0
accept = 0
rejected = 0
matrix size = 28
fillins = 41
solver = Normal
Matrix Compiler1:     188 opcodes
Matrix Compiler2:     217 opcodes
