Circuit: * D:\IIITD\CTD_Labs\LAB_4_Voltage_Regulator\Zener_diode.asc

Direct Newton iteration for .op point succeeded.
Semiconductor Device Operating Points:
                        --- Diodes ---
Name:      d2
Model:    1n751
Id:     -1.45e-06
Vd:     -1.36e+00
Req:     3.92e+05
CAP:     9.07e-11



Date: Thu Oct 21 19:44:42 2021
Total elapsed time: 0.706 seconds.

tnom = 27
temp = 27
method = trap
totiter = 17
traniter = 0
tranpoints = 0
accept = 0
rejected = 0
matrix size = 4
fillins = 0
solver = Normal
Matrix Compiler1: 100 bytes object code size
Matrix Compiler2: 248 bytes object code size
