Circuit: * D:\IIITD\CTD_Labs\LAB_2_Rectifier\Diode_Clipping_Circuit.asc

.OP point found by inspection.

Date: Thu Oct 07 22:54:06 2021
Total elapsed time: 0.049 seconds.

tnom = 27
temp = 27
method = modified trap
totiter = 2280
traniter = 2280
tranpoints = 1077
accept = 1059
rejected = 18
matrix size = 4
fillins = 0
solver = Normal
Matrix Compiler1: 100 bytes object code size  0.0/0.0/[0.0]
Matrix Compiler2: off  [0.0]/0.1/0.1

