Circuit: * D:\IIITD\CTD_Labs\LAB_2_Rectifier\Full_wave_Rectifier.asc

WARNING: Less than two connections to node NC_01.  This node is used by D3.
.OP point found by inspection.

Date: Fri Oct 08 00:35:09 2021
Total elapsed time: 0.038 seconds.

tnom = 27
temp = 27
method = modified trap
totiter = 1417
traniter = 1417
tranpoints = 423
accept = 302
rejected = 121
matrix size = 12
fillins = 2
solver = Normal
Matrix Compiler1:      34 opcodes  0.1/[0.1]/0.1
Matrix Compiler2: 866 bytes object code size  0.1/0.2/[0.1]

