Circuit: * D:\IIITD\CTD_Labs\LAB_2_Rectifier\HALF_Rectifier.asc

.OP point found by inspection.

Date: Thu Oct 07 23:45:50 2021
Total elapsed time: 0.059 seconds.

tnom = 27
temp = 27
method = modified trap
totiter = 2250
traniter = 2250
tranpoints = 1066
accept = 1051
rejected = 15
matrix size = 4
fillins = 0
solver = Normal
Matrix Compiler1: 118 bytes object code size  0.1/0.1/[0.1]
Matrix Compiler2: 242 bytes object code size  0.1/0.1/[0.1]

