Circuit: * D:\IIITD\CTD_Labs\LAB_2_Rectifier\Lab2_FWR_CT.asc

.OP point found by inspection.

Date: Fri Oct 08 00:41:50 2021
Total elapsed time: 0.053 seconds.

tnom = 27
temp = 27
method = modified trap
totiter = 1112
traniter = 1112
tranpoints = 341
accept = 236
rejected = 105
matrix size = 9
fillins = 7
solver = Normal
Matrix Compiler1: 644 bytes object code size  0.2/0.1/[0.1]
Matrix Compiler2: off  [0.1]/0.1/0.1

